
     RDKit          3D

 72 77  0  0  0  0  0  0  0  0999 V2000
   -9.1126    3.7171    0.5269 C   0  0  0  0  0  0  0  0  0  0  0  0
   -7.6857    3.6041    0.2513 N   0  0  0  0  0  0  0  0  0  0  0  0
   -6.9310    2.4596    0.6533 C   0  0  0  0  0  0  0  0  0  0  0  0
   -7.1515    1.9131    1.7682 O   0  0  0  0  0  0  0  0  0  0  0  0
   -5.8684    1.9815   -0.1781 N   0  0  0  0  0  0  0  0  0  0  0  0
   -5.7554    0.5754   -0.4062 C   0  0  0  0  0  0  0  0  0  0  0  0
   -6.8807   -0.3250   -1.2877 S   0  0  0  0  0  0  0  0  0  0  0  0
   -6.0573   -1.7742   -1.0995 C   0  0  0  0  0  0  0  0  0  0  0  0
   -6.4501   -3.0311   -1.5562 C   0  0  0  0  0  0  0  0  0  0  0  0
   -5.6427   -4.1287   -1.2411 C   0  0  0  0  0  0  0  0  0  0  0  0
   -4.4731   -3.9560   -0.4771 C   0  0  0  0  0  0  0  0  0  0  0  0
   -4.1001   -2.6825   -0.0200 C   0  0  0  0  0  0  0  0  0  0  0  0
   -4.8958   -1.5785   -0.3554 C   0  0  0  0  0  0  0  0  0  0  0  0
   -4.7047   -0.2347    0.0279 C   0  0  0  0  0  0  0  0  0  0  0  0
   -3.6025    0.2572    0.8824 C   0  0  0  0  0  0  0  0  0  0  0  0
   -3.8667    1.0705    1.8164 O   0  0  0  0  0  0  0  0  0  0  0  0
   -2.2573   -0.2149    0.7140 N   0  0  0  0  0  0  0  0  0  0  0  0
   -1.4486   -0.5025    1.9064 C   0  0  0  0  0  0  0  0  0  0  0  0
   -0.3232   -1.4847    1.5659 C   0  0  0  0  0  0  0  0  0  0  0  0
    0.5750   -0.9713    0.4019 C   0  0  0  0  0  0  0  0  0  0  0  0
    1.8630   -0.4096    0.8937 N   0  0  0  0  0  0  0  0  0  0  0  0
    1.7309    0.6712    1.9014 C   0  0  0  0  0  0  0  0  0  0  0  0
    3.0858    1.3181    2.2621 C   0  0  0  0  0  0  0  0  0  0  0  0
    4.2595    0.4360    1.8330 C   0  0  0  0  0  0  0  0  0  0  0  0
    4.2115    0.1727    0.3097 C   0  0  0  0  0  0  0  0  0  0  0  0
    2.7618   -0.0146   -0.2086 C   0  0  0  0  0  0  0  0  0  0  0  0
    4.9227    1.2706   -0.4436 C   0  0  0  0  0  0  0  0  0  0  0  0
    4.5748    2.4814   -0.4585 O   0  0  0  0  0  0  0  0  0  0  0  0
    6.0888    0.7869   -1.1019 N   0  0  0  0  0  0  0  0  0  0  0  0
    6.9275    1.5165   -2.0477 C   0  0  0  0  0  0  0  0  0  0  0  0
    8.2922    0.8222   -2.1729 C   0  0  0  0  0  0  0  0  0  0  0  0
    8.1305   -0.6938   -2.3791 C   0  0  0  0  0  0  0  0  0  0  0  0
    7.3855   -1.3361   -1.2000 C   0  0  0  0  0  0  0  0  0  0  0  0
    6.1498   -0.5952   -0.9489 N   0  0  0  0  0  0  0  0  0  0  0  0
    5.1065   -0.9906   -0.0652 C   0  0  0  0  0  0  0  0  0  0  0  0
    4.9458   -2.1777    0.3241 O   0  0  0  0  0  0  0  0  0  0  0  0
   -0.1819   -0.0343   -0.5849 C   0  0  0  0  0  0  0  0  0  0  0  0
   -1.6781   -0.3624   -0.6311 C   0  0  0  0  0  0  0  0  0  0  0  0
   -9.6559    3.9194   -0.4194 H   0  0  0  0  0  0  0  0  0  0  0  0
   -9.2907    4.5505    1.2388 H   0  0  0  0  0  0  0  0  0  0  0  0
   -9.5139    2.7721    0.9575 H   0  0  0  0  0  0  0  0  0  0  0  0
   -7.2445    4.3128   -0.3807 H   0  0  0  0  0  0  0  0  0  0  0  0
   -5.5721    2.5928   -0.9700 H   0  0  0  0  0  0  0  0  0  0  0  0
   -7.3669   -3.1586   -2.1235 H   0  0  0  0  0  0  0  0  0  0  0  0
   -5.9139   -5.1198   -1.5849 H   0  0  0  0  0  0  0  0  0  0  0  0
   -3.8487   -4.8129   -0.2413 H   0  0  0  0  0  0  0  0  0  0  0  0
   -3.2176   -2.5744    0.5958 H   0  0  0  0  0  0  0  0  0  0  0  0
   -1.0436    0.4462    2.3084 H   0  0  0  0  0  0  0  0  0  0  0  0
   -2.0830   -0.9592    2.6996 H   0  0  0  0  0  0  0  0  0  0  0  0
   -0.7944   -2.4400    1.2535 H   0  0  0  0  0  0  0  0  0  0  0  0
    0.2746   -1.7250    2.4725 H   0  0  0  0  0  0  0  0  0  0  0  0
    0.8269   -1.8855   -0.1833 H   0  0  0  0  0  0  0  0  0  0  0  0
    1.0469    1.4695    1.5468 H   0  0  0  0  0  0  0  0  0  0  0  0
    1.3085    0.2581    2.8380 H   0  0  0  0  0  0  0  0  0  0  0  0
    3.1645    2.3065    1.7637 H   0  0  0  0  0  0  0  0  0  0  0  0
    3.1380    1.5037    3.3606 H   0  0  0  0  0  0  0  0  0  0  0  0
    5.2196    0.9196    2.1252 H   0  0  0  0  0  0  0  0  0  0  0  0
    4.1953   -0.5305    2.3864 H   0  0  0  0  0  0  0  0  0  0  0  0
    2.7532   -0.7846   -1.0191 H   0  0  0  0  0  0  0  0  0  0  0  0
    2.3913    0.9301   -0.6636 H   0  0  0  0  0  0  0  0  0  0  0  0
    7.0772    2.5614   -1.6853 H   0  0  0  0  0  0  0  0  0  0  0  0
    6.4250    1.5499   -3.0421 H   0  0  0  0  0  0  0  0  0  0  0  0
    8.8522    1.2579   -3.0297 H   0  0  0  0  0  0  0  0  0  0  0  0
    8.8803    1.0012   -1.2496 H   0  0  0  0  0  0  0  0  0  0  0  0
    9.1332   -1.1663   -2.4695 H   0  0  0  0  0  0  0  0  0  0  0  0
    7.5695   -0.8813   -3.3197 H   0  0  0  0  0  0  0  0  0  0  0  0
    7.1595   -2.4027   -1.4190 H   0  0  0  0  0  0  0  0  0  0  0  0
    8.0170   -1.2953   -0.2877 H   0  0  0  0  0  0  0  0  0  0  0  0
   -0.0737    1.0248   -0.2873 H   0  0  0  0  0  0  0  0  0  0  0  0
    0.2457   -0.1310   -1.6124 H   0  0  0  0  0  0  0  0  0  0  0  0
   -1.8334   -1.3933   -0.9996 H   0  0  0  0  0  0  0  0  0  0  0  0
   -2.1706    0.3285   -1.3493 H   0  0  0  0  0  0  0  0  0  0  0  0
  1  2  1  0
  2  3  1  0
  3  4  2  0
  3  5  1  0
  5  6  1  0
  6  7  1  0
  7  8  1  0
  8  9  2  0
  9 10  1  0
 10 11  2  0
 11 12  1  0
 12 13  2  0
 13 14  1  0
 14 15  1  0
 15 16  2  0
 15 17  1  0
 17 18  1  0
 18 19  1  0
 19 20  1  0
 20 21  1  0
 21 22  1  0
 22 23  1  0
 23 24  1  0
 24 25  1  0
 25 26  1  0
 25 27  1  0
 27 28  2  0
 27 29  1  0
 29 30  1  0
 30 31  1  0
 31 32  1  0
 32 33  1  0
 33 34  1  0
 34 35  1  0
 35 36  2  0
 20 37  1  0
 37 38  1  0
 14  6  2  0
 38 17  1  0
 13  8  1  0
 26 21  1  0
 34 29  1  0
 35 25  1  0
  1 39  1  0
  1 40  1  0
  1 41  1  0
  2 42  1  0
  5 43  1  0
  9 44  1  0
 10 45  1  0
 11 46  1  0
 12 47  1  0
 18 48  1  0
 18 49  1  0
 19 50  1  0
 19 51  1  0
 20 52  1  0
 22 53  1  0
 22 54  1  0
 23 55  1  0
 23 56  1  0
 24 57  1  0
 24 58  1  0
 26 59  1  0
 26 60  1  0
 30 61  1  0
 30 62  1  0
 31 63  1  0
 31 64  1  0
 32 65  1  0
 32 66  1  0
 33 67  1  0
 33 68  1  0
 37 69  1  0
 37 70  1  0
 38 71  1  0
 38 72  1  0
M  END
$$$$

     RDKit          3D

 66 71  0  0  0  0  0  0  0  0999 V2000
    9.2633   -3.0052    0.4567 C   0  0  0  0  0  0  0  0  0  0  0  0
    7.9686   -3.2954   -0.2283 C   0  0  0  0  0  0  0  0  0  0  0  0
    7.8158   -2.9680   -1.4352 O   0  0  0  0  0  0  0  0  0  0  0  0
    6.9110   -3.9475    0.4888 N   0  0  0  0  0  0  0  0  0  0  0  0
    5.3725   -4.2767   -0.2356 S   0  0  0  0  0  6  0  0  0  0  0  0
    4.6800   -5.3493    0.5550 O   0  0  0  0  0  0  0  0  0  0  0  0
    5.5599   -4.7796   -1.6382 O   0  0  0  0  0  0  0  0  0  0  0  0
    4.3966   -2.8117   -0.2384 C   0  0  0  0  0  0  0  0  0  0  0  0
    3.5488   -2.5322    0.8413 C   0  0  0  0  0  0  0  0  0  0  0  0
    2.8007   -1.3534    0.8579 C   0  0  0  0  0  0  0  0  0  0  0  0
    2.8914   -0.4378   -0.2038 C   0  0  0  0  0  0  0  0  0  0  0  0
    2.1361    0.8339   -0.1543 C   0  0  0  0  0  0  0  0  0  0  0  0
    2.7933    2.0639   -0.3349 C   0  0  0  0  0  0  0  0  0  0  0  0
    2.0999    3.2301   -0.1885 N   0  0  0  0  0  0  0  0  0  0  0  0
    0.7659    3.2564    0.1058 C   0  0  0  0  0  0  0  0  0  0  0  0
    0.0921    4.5162    0.2821 N   0  0  0  0  0  0  0  0  0  0  0  0
   -1.1100    4.8157   -0.5098 C   0  0  0  0  0  0  0  0  0  0  0  0
   -1.7948    6.1038   -0.0341 C   0  0  0  0  0  0  0  0  0  0  0  0
   -0.8509    7.1365    0.1634 O   0  0  0  0  0  0  0  0  0  0  0  0
   -0.0293    6.7983    1.2576 C   0  0  0  0  0  0  0  0  0  0  0  0
    0.8590    5.6046    0.9103 C   0  0  0  0  0  0  0  0  0  0  0  0
    0.1169    2.0262    0.2686 C   0  0  0  0  0  0  0  0  0  0  0  0
   -1.1862    1.8362    0.5639 N   0  0  0  0  0  0  0  0  0  0  0  0
   -1.3045    0.4882    0.5993 C   0  0  0  0  0  0  0  0  0  0  0  0
   -2.5960   -0.2306    0.8097 C   0  0  0  0  0  0  0  0  0  0  0  0
   -3.2722   -0.3620   -0.4367 O   0  0  0  0  0  0  0  0  0  0  0  0
   -4.5043   -1.0107   -0.5611 C   0  0  0  0  0  0  0  0  0  0  0  0
   -5.1135   -1.0923   -1.8185 C   0  0  0  0  0  0  0  0  0  0  0  0
   -6.3393   -1.7468   -1.9514 C   0  0  0  0  0  0  0  0  0  0  0  0
   -6.9500   -2.3129   -0.8260 C   0  0  0  0  0  0  0  0  0  0  0  0
   -8.1823   -2.9736   -0.9187 C   0  0  0  0  0  0  0  0  0  0  0  0
   -8.7669   -3.5255    0.2255 C   0  0  0  0  0  0  0  0  0  0  0  0
   -8.1259   -3.4226    1.4655 C   0  0  0  0  0  0  0  0  0  0  0  0
   -6.8980   -2.7640    1.5667 C   0  0  0  0  0  0  0  0  0  0  0  0
   -6.3064   -2.2079    0.4275 C   0  0  0  0  0  0  0  0  0  0  0  0
   -5.1126   -1.5666    0.5254 N   0  0  0  0  0  0  0  0  0  0  0  0
   -0.0906   -0.1110    0.3187 C   0  0  0  0  0  0  0  0  0  0  0  0
    0.8029    0.8767    0.1336 N   0  0  0  0  0  0  0  0  0  0  0  0
    3.7560   -0.7122   -1.2772 C   0  0  0  0  0  0  0  0  0  0  0  0
    4.5000   -1.8955   -1.2974 C   0  0  0  0  0  0  0  0  0  0  0  0
    9.7246   -3.9583    0.7887 H   0  0  0  0  0  0  0  0  0  0  0  0
    9.0730   -2.3661    1.3436 H   0  0  0  0  0  0  0  0  0  0  0  0
    9.9648   -2.4805   -0.2275 H   0  0  0  0  0  0  0  0  0  0  0  0
    7.0612   -4.2421    1.4807 H   0  0  0  0  0  0  0  0  0  0  0  0
    3.4865   -3.2170    1.6791 H   0  0  0  0  0  0  0  0  0  0  0  0
    2.1676   -1.1454    1.7108 H   0  0  0  0  0  0  0  0  0  0  0  0
    3.8532    2.0998   -0.5522 H   0  0  0  0  0  0  0  0  0  0  0  0
   -1.8557    3.9974   -0.4224 H   0  0  0  0  0  0  0  0  0  0  0  0
   -0.8253    4.9115   -1.5836 H   0  0  0  0  0  0  0  0  0  0  0  0
   -2.3918    5.9122    0.8899 H   0  0  0  0  0  0  0  0  0  0  0  0
   -2.5194    6.4312   -0.8127 H   0  0  0  0  0  0  0  0  0  0  0  0
   -0.6256    6.5927    2.1803 H   0  0  0  0  0  0  0  0  0  0  0  0
    0.6187    7.6719    1.4939 H   0  0  0  0  0  0  0  0  0  0  0  0
    1.6698    5.9333    0.2182 H   0  0  0  0  0  0  0  0  0  0  0  0
    1.3306    5.2365    1.8511 H   0  0  0  0  0  0  0  0  0  0  0  0
   -3.2307    0.3427    1.5215 H   0  0  0  0  0  0  0  0  0  0  0  0
   -2.3944   -1.2378    1.2380 H   0  0  0  0  0  0  0  0  0  0  0  0
   -4.6367   -0.6556   -2.6862 H   0  0  0  0  0  0  0  0  0  0  0  0
   -6.8072   -1.8079   -2.9262 H   0  0  0  0  0  0  0  0  0  0  0  0
   -8.6903   -3.0613   -1.8711 H   0  0  0  0  0  0  0  0  0  0  0  0
   -9.7175   -4.0353    0.1455 H   0  0  0  0  0  0  0  0  0  0  0  0
   -8.5754   -3.8553    2.3474 H   0  0  0  0  0  0  0  0  0  0  0  0
   -6.4073   -2.6865    2.5288 H   0  0  0  0  0  0  0  0  0  0  0  0
    0.1070   -1.1727    0.2369 H   0  0  0  0  0  0  0  0  0  0  0  0
    3.8527   -0.0144   -2.0983 H   0  0  0  0  0  0  0  0  0  0  0  0
    5.1707   -2.0885   -2.1259 H   0  0  0  0  0  0  0  0  0  0  0  0
  1  2  1  0
  2  3  2  0
  2  4  1  0
  4  5  1  0
  5  6  2  0
  5  7  2  0
  5  8  1  0
  8  9  2  0
  9 10  1  0
 10 11  2  0
 11 12  1  0
 12 13  2  0
 13 14  1  0
 14 15  2  0
 15 16  1  0
 16 17  1  0
 17 18  1  0
 18 19  1  0
 19 20  1  0
 20 21  1  0
 15 22  1  0
 22 23  2  0
 23 24  1  0
 24 25  1  0
 25 26  1  0
 26 27  1  0
 27 28  2  0
 28 29  1  0
 29 30  2  0
 30 31  1  0
 31 32  2  0
 32 33  1  0
 33 34  2  0
 34 35  1  0
 35 36  2  0
 24 37  2  0
 37 38  1  0
 11 39  1  0
 39 40  2  0
 40  8  1  0
 38 12  1  0
 21 16  1  0
 38 22  1  0
 36 27  1  0
 35 30  1  0
  1 41  1  0
  1 42  1  0
  1 43  1  0
  4 44  1  0
  9 45  1  0
 10 46  1  0
 13 47  1  0
 17 48  1  0
 17 49  1  0
 18 50  1  0
 18 51  1  0
 20 52  1  0
 20 53  1  0
 21 54  1  0
 21 55  1  0
 25 56  1  0
 25 57  1  0
 28 58  1  0
 29 59  1  0
 31 60  1  0
 32 61  1  0
 33 62  1  0
 34 63  1  0
 37 64  1  0
 39 65  1  0
 40 66  1  0
M  END
$$$$

     RDKit          3D

 47 51  0  0  0  0  0  0  0  0999 V2000
    7.0131    1.8197   -1.6509 C   0  0  0  0  0  0  0  0  0  0  0  0
    6.0619    1.3978   -0.5713 C   0  0  0  0  0  0  0  0  0  0  0  0
    6.3491    1.6669    0.7920 C   0  0  0  0  0  0  0  0  0  0  0  0
    5.4577    1.2669    1.8040 C   0  0  0  0  0  0  0  0  0  0  0  0
    4.2940    0.6060    1.4217 C   0  0  0  0  0  0  0  0  0  0  0  0
    3.2653    0.0924    2.1797 C   0  0  0  0  0  0  0  0  0  0  0  0
    2.3780   -0.4569    1.2571 C   0  0  0  0  0  0  0  0  0  0  0  0
    1.1352   -1.1605    1.6170 C   0  0  0  0  0  0  0  0  0  0  0  0
    0.9526   -1.7854    2.8060 N   0  0  0  0  0  0  0  0  0  0  0  0
   -0.2626   -2.3201    2.8153 N   0  0  0  0  0  0  0  0  0  0  0  0
   -0.8620   -2.0348    1.6492 C   0  0  0  0  0  0  0  0  0  0  0  0
   -2.1508   -2.3648    1.2453 C   0  0  0  0  0  0  0  0  0  0  0  0
   -2.5810   -1.9050   -0.0118 C   0  0  0  0  0  0  0  0  0  0  0  0
   -1.7277   -1.1097   -0.8274 C   0  0  0  0  0  0  0  0  0  0  0  0
   -2.1599   -0.6014   -2.1018 N   0  0  0  0  0  0  0  0  0  0  0  0
   -3.8153   -0.5825   -2.6227 S   0  0  0  0  0  6  0  0  0  0  0  0
   -3.9297    0.2244   -3.8849 O   0  0  0  0  0  0  0  0  0  0  0  0
   -4.2595   -1.9912   -2.9021 O   0  0  0  0  0  0  0  0  0  0  0  0
   -4.8239    0.1592   -1.3843 C   0  0  0  0  0  0  0  0  0  0  0  0
   -6.0624   -0.4028   -1.0413 C   0  0  0  0  0  0  0  0  0  0  0  0
   -6.8464    0.1840   -0.0431 C   0  0  0  0  0  0  0  0  0  0  0  0
   -6.3984    1.3327    0.6149 C   0  0  0  0  0  0  0  0  0  0  0  0
   -5.1658    1.8985    0.2740 C   0  0  0  0  0  0  0  0  0  0  0  0
   -4.7301    3.0108    0.9140 F   0  0  0  0  0  0  0  0  0  0  0  0
   -4.3803    1.3139   -0.7248 C   0  0  0  0  0  0  0  0  0  0  0  0
   -0.4235   -0.8034   -0.3765 C   0  0  0  0  0  0  0  0  0  0  0  0
   -0.0200   -1.3003    0.8634 C   0  0  0  0  0  0  0  0  0  0  0  0
    2.8408   -0.3086   -0.0081 N   0  0  0  0  0  0  0  0  0  0  0  0
    4.0080    0.3455    0.1083 C   0  0  0  0  0  0  0  0  0  0  0  0
    4.8717    0.7226   -0.9186 C   0  0  0  0  0  0  0  0  0  0  0  0
    6.5015    2.5168   -2.3474 H   0  0  0  0  0  0  0  0  0  0  0  0
    7.3547    0.9274   -2.2160 H   0  0  0  0  0  0  0  0  0  0  0  0
    7.9045    2.3319   -1.2308 H   0  0  0  0  0  0  0  0  0  0  0  0
    7.2589    2.1844    1.0684 H   0  0  0  0  0  0  0  0  0  0  0  0
    5.6725    1.4651    2.8461 H   0  0  0  0  0  0  0  0  0  0  0  0
    3.1702    0.1113    3.2576 H   0  0  0  0  0  0  0  0  0  0  0  0
   -0.6679   -2.8569    3.6138 H   0  0  0  0  0  0  0  0  0  0  0  0
   -2.8040   -2.9506    1.8791 H   0  0  0  0  0  0  0  0  0  0  0  0
   -3.5770   -2.1686   -0.3362 H   0  0  0  0  0  0  0  0  0  0  0  0
   -1.4643   -0.1286   -2.7209 H   0  0  0  0  0  0  0  0  0  0  0  0
   -6.4199   -1.2936   -1.5412 H   0  0  0  0  0  0  0  0  0  0  0  0
   -7.8003   -0.2534    0.2220 H   0  0  0  0  0  0  0  0  0  0  0  0
   -7.0063    1.7837    1.3887 H   0  0  0  0  0  0  0  0  0  0  0  0
   -3.4255    1.7558   -0.9808 H   0  0  0  0  0  0  0  0  0  0  0  0
    0.2241   -0.1699   -0.9650 H   0  0  0  0  0  0  0  0  0  0  0  0
    2.4196   -0.6710   -0.8911 H   0  0  0  0  0  0  0  0  0  0  0  0
    4.6309    0.5027   -1.9515 H   0  0  0  0  0  0  0  0  0  0  0  0
  1  2  1  0
  2  3  2  0
  3  4  1  0
  4  5  2  0
  5  6  1  0
  6  7  2  0
  7  8  1  0
  8  9  2  0
  9 10  1  0
 10 11  1  0
 11 12  2  0
 12 13  1  0
 13 14  2  0
 14 15  1  0
 15 16  1  0
 16 17  2  0
 16 18  2  0
 16 19  1  0
 19 20  2  0
 20 21  1  0
 21 22  2  0
 22 23  1  0
 23 24  1  0
 23 25  2  0
 14 26  1  0
 26 27  2  0
  7 28  1  0
 28 29  1  0
 29 30  2  0
 30  2  1  0
 29  5  1  0
 27  8  1  0
 27 11  1  0
 25 19  1  0
  1 31  1  0
  1 32  1  0
  1 33  1  0
  3 34  1  0
  4 35  1  0
  6 36  1  0
 10 37  1  0
 12 38  1  0
 13 39  1  0
 15 40  1  0
 20 41  1  0
 21 42  1  0
 22 43  1  0
 25 44  1  0
 26 45  1  0
 28 46  1  0
 30 47  1  0
M  END
$$$$

     RDKit          3D

 66 71  0  0  0  0  0  0  0  0999 V2000
    8.5566    3.7352   -0.8026 C   0  0  0  0  0  0  0  0  0  0  0  0
    7.3357    4.0963   -0.0217 C   0  0  0  0  0  0  0  0  0  0  0  0
    7.3084    5.1729    0.6339 O   0  0  0  0  0  0  0  0  0  0  0  0
    6.2056    3.2190   -0.0195 N   0  0  0  0  0  0  0  0  0  0  0  0
    4.7659    3.5887    0.8689 S   0  0  0  0  0  6  0  0  0  0  0  0
    4.1730    4.8733    0.3609 O   0  0  0  0  0  0  0  0  0  0  0  0
    5.0925    3.7399    2.3283 O   0  0  0  0  0  0  0  0  0  0  0  0
    3.6078    2.2790    0.6629 C   0  0  0  0  0  0  0  0  0  0  0  0
    2.6206    2.3552   -0.3283 C   0  0  0  0  0  0  0  0  0  0  0  0
    1.7105    1.3077   -0.4967 C   0  0  0  0  0  0  0  0  0  0  0  0
    1.7768    0.1712    0.3253 C   0  0  0  0  0  0  0  0  0  0  0  0
    0.8202   -0.9421    0.1479 C   0  0  0  0  0  0  0  0  0  0  0  0
   -0.5630   -0.8770   -0.0191 C   0  0  0  0  0  0  0  0  0  0  0  0
   -1.3932    0.3410    0.0436 C   0  0  0  0  0  0  0  0  0  0  0  0
   -2.7072    0.3133   -0.2093 C   0  0  0  0  0  0  0  0  0  0  0  0
   -3.5518    1.5237   -0.1418 C   0  0  0  0  0  0  0  0  0  0  0  0
   -4.9255    1.4324   -0.4112 C   0  0  0  0  0  0  0  0  0  0  0  0
   -5.7215    2.5781   -0.3479 C   0  0  0  0  0  0  0  0  0  0  0  0
   -5.1450    3.8098   -0.0159 C   0  0  0  0  0  0  0  0  0  0  0  0
   -5.9150    4.9804    0.0568 C   0  0  0  0  0  0  0  0  0  0  0  0
   -5.3076    6.1958    0.3905 C   0  0  0  0  0  0  0  0  0  0  0  0
   -3.9343    6.2481    0.6523 C   0  0  0  0  0  0  0  0  0  0  0  0
   -3.1600    5.0855    0.5825 C   0  0  0  0  0  0  0  0  0  0  0  0
   -3.7588    3.8652    0.2493 C   0  0  0  0  0  0  0  0  0  0  0  0
   -3.0094    2.7327    0.1796 N   0  0  0  0  0  0  0  0  0  0  0  0
   -1.0707   -2.1273   -0.1792 N   0  0  0  0  0  0  0  0  0  0  0  0
    0.0139   -2.9255   -0.1012 C   0  0  0  0  0  0  0  0  0  0  0  0
    0.0433   -4.3165   -0.2345 C   0  0  0  0  0  0  0  0  0  0  0  0
   -1.1536   -5.0933   -0.4239 N   0  0  0  0  0  0  0  0  0  0  0  0
   -2.2817   -4.9390    0.5026 C   0  0  0  0  0  0  0  0  0  0  0  0
   -3.2667   -6.0971    0.3417 C   0  0  0  0  0  0  0  0  0  0  0  0
   -2.5521   -7.2910    0.1061 O   0  0  0  0  0  0  0  0  0  0  0  0
   -2.0321   -7.2903   -1.2125 C   0  0  0  0  0  0  0  0  0  0  0  0
   -1.2719   -5.9934   -1.5789 C   0  0  0  0  0  0  0  0  0  0  0  0
    1.3062   -4.9354   -0.1614 C   0  0  0  0  0  0  0  0  0  0  0  0
    2.4618   -4.1562    0.0322 C   0  0  0  0  0  0  0  0  0  0  0  0
    2.3542   -2.8036    0.1521 N   0  0  0  0  0  0  0  0  0  0  0  0
    1.1489   -2.2409    0.0935 N   0  0  0  0  0  0  0  0  0  0  0  0
    2.7798    0.0898    1.3037 C   0  0  0  0  0  0  0  0  0  0  0  0
    3.6889    1.1382    1.4716 C   0  0  0  0  0  0  0  0  0  0  0  0
    8.9631    2.7712   -0.4308 H   0  0  0  0  0  0  0  0  0  0  0  0
    8.2937    3.6309   -1.8758 H   0  0  0  0  0  0  0  0  0  0  0  0
    9.3359    4.5200   -0.6962 H   0  0  0  0  0  0  0  0  0  0  0  0
    6.2394    2.3317   -0.5700 H   0  0  0  0  0  0  0  0  0  0  0  0
    2.5583    3.2203   -0.9758 H   0  0  0  0  0  0  0  0  0  0  0  0
    0.9669    1.3766   -1.2808 H   0  0  0  0  0  0  0  0  0  0  0  0
   -0.9182    1.2737    0.3172 H   0  0  0  0  0  0  0  0  0  0  0  0
   -3.1795   -0.6250   -0.4773 H   0  0  0  0  0  0  0  0  0  0  0  0
   -5.3779    0.4824   -0.6685 H   0  0  0  0  0  0  0  0  0  0  0  0
   -6.7818    2.5013   -0.5577 H   0  0  0  0  0  0  0  0  0  0  0  0
   -6.9795    4.9550   -0.1432 H   0  0  0  0  0  0  0  0  0  0  0  0
   -5.9017    7.0988    0.4466 H   0  0  0  0  0  0  0  0  0  0  0  0
   -3.4698    7.1911    0.9100 H   0  0  0  0  0  0  0  0  0  0  0  0
   -2.0975    5.1350    0.7870 H   0  0  0  0  0  0  0  0  0  0  0  0
   -1.8974   -4.9404    1.5463 H   0  0  0  0  0  0  0  0  0  0  0  0
   -2.8081   -3.9801    0.3159 H   0  0  0  0  0  0  0  0  0  0  0  0
   -3.9933   -5.8855   -0.4776 H   0  0  0  0  0  0  0  0  0  0  0  0
   -3.8557   -6.2086    1.2767 H   0  0  0  0  0  0  0  0  0  0  0  0
   -2.8531   -7.4725   -1.9418 H   0  0  0  0  0  0  0  0  0  0  0  0
   -1.3340   -8.1494   -1.3025 H   0  0  0  0  0  0  0  0  0  0  0  0
   -1.8244   -5.4610   -2.3831 H   0  0  0  0  0  0  0  0  0  0  0  0
   -0.2713   -6.2526   -1.9875 H   0  0  0  0  0  0  0  0  0  0  0  0
    1.3955   -6.0112   -0.2409 H   0  0  0  0  0  0  0  0  0  0  0  0
    3.4339   -4.6273    0.0865 H   0  0  0  0  0  0  0  0  0  0  0  0
    2.8510   -0.7778    1.9478 H   0  0  0  0  0  0  0  0  0  0  0  0
    4.4555    1.0595    2.2319 H   0  0  0  0  0  0  0  0  0  0  0  0
  1  2  1  0
  2  3  2  0
  2  4  1  0
  4  5  1  0
  5  6  2  0
  5  7  2  0
  5  8  1  0
  8  9  2  0
  9 10  1  0
 10 11  2  0
 11 12  1  0
 12 13  2  0
 13 14  1  0
 14 15  2  0
 15 16  1  0
 16 17  2  0
 17 18  1  0
 18 19  2  0
 19 20  1  0
 20 21  2  0
 21 22  1  0
 22 23  2  0
 23 24  1  0
 24 25  2  0
 13 26  1  0
 26 27  2  0
 27 28  1  0
 28 29  1  0
 29 30  1  0
 30 31  1  0
 31 32  1  0
 32 33  1  0
 33 34  1  0
 28 35  2  0
 35 36  1  0
 36 37  2  0
 37 38  1  0
 11 39  1  0
 39 40  2  0
 40  8  1  0
 38 12  1  0
 25 16  1  0
 38 27  1  0
 24 19  1  0
 34 29  1  0
  1 41  1  0
  1 42  1  0
  1 43  1  0
  4 44  1  0
  9 45  1  0
 10 46  1  0
 14 47  1  0
 15 48  1  0
 17 49  1  0
 18 50  1  0
 20 51  1  0
 21 52  1  0
 22 53  1  0
 23 54  1  0
 30 55  1  0
 30 56  1  0
 31 57  1  0
 31 58  1  0
 33 59  1  0
 33 60  1  0
 34 61  1  0
 34 62  1  0
 35 63  1  0
 36 64  1  0
 39 65  1  0
 40 66  1  0
M  END
$$$$

     RDKit          3D

 79 84  0  0  0  0  0  0  0  0999 V2000
    0.6870   -0.5263   -3.6670 C   0  0  0  0  0  0  0  0  0  0  0  0
    0.7405   -0.1768   -2.2453 N   0  0  0  0  0  0  0  0  0  0  0  0
    1.9740    0.2324   -1.6415 C   0  0  0  0  0  0  0  0  0  0  0  0
    3.1283   -0.5537   -1.7982 C   0  0  0  0  0  0  0  0  0  0  0  0
    4.3408   -0.1496   -1.2418 C   0  0  0  0  0  0  0  0  0  0  0  0
    4.4211    1.0541   -0.5334 C   0  0  0  0  0  0  0  0  0  0  0  0
    5.9579    1.5877    0.1432 S   0  0  0  0  0  6  0  0  0  0  0  0
    7.0937    1.0203   -0.6631 O   0  0  0  0  0  0  0  0  0  0  0  0
    6.0347    3.0891    0.0877 O   0  0  0  0  0  0  0  0  0  0  0  0
    6.0924    1.0498    1.8407 C   0  0  0  0  0  0  0  0  0  0  0  0
    5.9913   -0.4482    1.9236 C   0  0  0  0  0  0  0  0  0  0  0  0
    4.7522   -1.0646    2.1689 C   0  0  0  0  0  0  0  0  0  0  0  0
    4.6548   -2.4589    2.2110 C   0  0  0  0  0  0  0  0  0  0  0  0
    5.7930   -3.2477    2.0123 C   0  0  0  0  0  0  0  0  0  0  0  0
    5.6719   -4.9959    2.0663 Cl  0  0  0  0  0  0  0  0  0  0  0  0
    7.0296   -2.6407    1.7680 C   0  0  0  0  0  0  0  0  0  0  0  0
    7.1291   -1.2463    1.7227 C   0  0  0  0  0  0  0  0  0  0  0  0
    3.2704    1.8303   -0.3569 C   0  0  0  0  0  0  0  0  0  0  0  0
    2.0399    1.4179   -0.8847 C   0  0  0  0  0  0  0  0  0  0  0  0
    0.9264    2.3142   -0.7661 N   0  0  0  0  0  0  0  0  0  0  0  0
   -0.3457    2.0441   -0.6950 C   0  0  0  0  0  0  0  0  0  0  0  0
   -1.2729    3.1833   -0.6328 C   0  0  0  0  0  0  0  0  0  0  0  0
   -1.9739    3.5777   -1.7803 C   0  0  0  0  0  0  0  0  0  0  0  0
   -2.8406    4.6739   -1.7329 C   0  0  0  0  0  0  0  0  0  0  0  0
   -3.0361    5.3744   -0.5271 C   0  0  0  0  0  0  0  0  0  0  0  0
   -3.9409    6.5441   -0.4719 C   0  0  0  0  0  0  0  0  0  0  0  0
   -4.4529    7.0083   -1.5280 O   0  0  0  0  0  0  0  0  0  0  0  0
   -4.2220    7.1576    0.7459 O   0  0  0  0  0  0  0  0  0  0  0  0
   -2.3361    4.9652    0.6220 C   0  0  0  0  0  0  0  0  0  0  0  0
   -1.4536    3.8837    0.5670 C   0  0  0  0  0  0  0  0  0  0  0  0
   -0.8940    0.6616   -0.6082 C   0  0  0  0  0  0  0  0  0  0  0  0
   -1.9971    0.4129    0.2223 C   0  0  0  0  0  0  0  0  0  0  0  0
   -2.6442   -0.8409    0.2553 C   0  0  0  0  0  0  0  0  0  0  0  0
   -2.0988   -1.9103   -0.5124 C   0  0  0  0  0  0  0  0  0  0  0  0
   -1.0034   -1.6390   -1.3595 C   0  0  0  0  0  0  0  0  0  0  0  0
   -0.4003   -0.3778   -1.4046 C   0  0  0  0  0  0  0  0  0  0  0  0
   -2.7159   -3.3190   -0.5248 C   0  0  0  0  0  0  0  0  0  0  0  0
   -1.6168   -4.4026   -0.3777 C   0  0  0  0  0  0  0  0  0  0  0  0
   -3.4442   -3.5342   -1.8715 C   0  0  0  0  0  0  0  0  0  0  0  0
   -3.7083   -3.5227    0.6491 C   0  0  0  0  0  0  0  0  0  0  0  0
   -4.6276   -2.3237    0.8484 C   0  0  0  0  0  0  0  0  0  0  0  0
   -3.8424   -1.0354    1.1963 C   0  0  0  0  0  0  0  0  0  0  0  0
   -3.3262   -1.1002    2.6506 C   0  0  0  0  0  0  0  0  0  0  0  0
   -4.8461    0.1398    1.0798 C   0  0  0  0  0  0  0  0  0  0  0  0
    1.0807    0.3180   -4.2725 H   0  0  0  0  0  0  0  0  0  0  0  0
   -0.3607   -0.7199   -3.9853 H   0  0  0  0  0  0  0  0  0  0  0  0
    1.2888   -1.4370   -3.8648 H   0  0  0  0  0  0  0  0  0  0  0  0
    3.0892   -1.4868   -2.3478 H   0  0  0  0  0  0  0  0  0  0  0  0
    5.2174   -0.7724   -1.3689 H   0  0  0  0  0  0  0  0  0  0  0  0
    5.2821    1.5274    2.4299 H   0  0  0  0  0  0  0  0  0  0  0  0
    7.0625    1.3963    2.2584 H   0  0  0  0  0  0  0  0  0  0  0  0
    3.8624   -0.4653    2.3139 H   0  0  0  0  0  0  0  0  0  0  0  0
    3.6944   -2.9245    2.3943 H   0  0  0  0  0  0  0  0  0  0  0  0
    7.9127   -3.2476    1.6099 H   0  0  0  0  0  0  0  0  0  0  0  0
    8.0925   -0.7888    1.5280 H   0  0  0  0  0  0  0  0  0  0  0  0
    3.3294    2.7638    0.1871 H   0  0  0  0  0  0  0  0  0  0  0  0
   -1.8373    3.0465   -2.7158 H   0  0  0  0  0  0  0  0  0  0  0  0
   -3.3548    4.9747   -2.6386 H   0  0  0  0  0  0  0  0  0  0  0  0
   -4.8347    7.9634    0.7922 H   0  0  0  0  0  0  0  0  0  0  0  0
   -2.4646    5.4862    1.5621 H   0  0  0  0  0  0  0  0  0  0  0  0
   -0.9169    3.5864    1.4622 H   0  0  0  0  0  0  0  0  0  0  0  0
   -2.3460    1.2100    0.8597 H   0  0  0  0  0  0  0  0  0  0  0  0
   -0.5992   -2.4132   -1.9971 H   0  0  0  0  0  0  0  0  0  0  0  0
   -0.9756   -4.1887    0.5055 H   0  0  0  0  0  0  0  0  0  0  0  0
   -0.9670   -4.4695   -1.2748 H   0  0  0  0  0  0  0  0  0  0  0  0
   -2.0749   -5.4060   -0.2376 H   0  0  0  0  0  0  0  0  0  0  0  0
   -2.7269   -3.4904   -2.7192 H   0  0  0  0  0  0  0  0  0  0  0  0
   -4.2088   -2.7500   -2.0449 H   0  0  0  0  0  0  0  0  0  0  0  0
   -3.9424   -4.5275   -1.8998 H   0  0  0  0  0  0  0  0  0  0  0  0
   -4.3356   -4.4246    0.4683 H   0  0  0  0  0  0  0  0  0  0  0  0
   -3.1581   -3.7199    1.5956 H   0  0  0  0  0  0  0  0  0  0  0  0
   -5.2278   -2.1728   -0.0747 H   0  0  0  0  0  0  0  0  0  0  0  0
   -5.3552   -2.5595    1.6572 H   0  0  0  0  0  0  0  0  0  0  0  0
   -4.1553   -1.3308    3.3527 H   0  0  0  0  0  0  0  0  0  0  0  0
   -2.8808   -0.1278    2.9503 H   0  0  0  0  0  0  0  0  0  0  0  0
   -2.5373   -1.8707    2.7661 H   0  0  0  0  0  0  0  0  0  0  0  0
   -5.1143    0.3213    0.0163 H   0  0  0  0  0  0  0  0  0  0  0  0
   -5.7816   -0.0905    1.6358 H   0  0  0  0  0  0  0  0  0  0  0  0
   -4.4453    1.0821    1.5091 H   0  0  0  0  0  0  0  0  0  0  0  0
  1  2  1  0
  2  3  1  0
  3  4  2  0
  4  5  1  0
  5  6  2  0
  6  7  1  0
  7  8  2  0
  7  9  2  0
  7 10  1  0
 10 11  1  0
 11 12  2  0
 12 13  1  0
 13 14  2  0
 14 15  1  0
 14 16  1  0
 16 17  2  0
  6 18  1  0
 18 19  2  0
 19 20  1  0
 20 21  2  0
 21 22  1  0
 22 23  2  0
 23 24  1  0
 24 25  2  0
 25 26  1  0
 26 27  2  0
 26 28  1  0
 25 29  1  0
 29 30  2  0
 21 31  1  0
 31 32  2  0
 32 33  1  0
 33 34  2  0
 34 35  1  0
 35 36  2  0
 34 37  1  0
 37 38  1  0
 37 39  1  0
 37 40  1  0
 40 41  1  0
 41 42  1  0
 42 43  1  0
 42 44  1  0
 36  2  1  0
 19  3  1  0
 30 22  1  0
 36 31  1  0
 17 11  1  0
 42 33  1  0
  1 45  1  0
  1 46  1  0
  1 47  1  0
  4 48  1  0
  5 49  1  0
 10 50  1  0
 10 51  1  0
 12 52  1  0
 13 53  1  0
 16 54  1  0
 17 55  1  0
 18 56  1  0
 23 57  1  0
 24 58  1  0
 28 59  1  0
 29 60  1  0
 30 61  1  0
 32 62  1  0
 35 63  1  0
 38 64  1  0
 38 65  1  0
 38 66  1  0
 39 67  1  0
 39 68  1  0
 39 69  1  0
 40 70  1  0
 40 71  1  0
 41 72  1  0
 41 73  1  0
 43 74  1  0
 43 75  1  0
 43 76  1  0
 44 77  1  0
 44 78  1  0
 44 79  1  0
M  END
$$$$

     RDKit          3D

 52 56  0  0  0  0  0  0  0  0999 V2000
   -0.6475   -3.2897   -0.3341 O   0  0  0  0  0  0  0  0  0  0  0  0
   -0.2363   -2.1266   -0.0739 C   0  0  0  0  0  0  0  0  0  0  0  0
    1.1271   -1.9644    0.3491 N   0  0  0  0  0  0  0  0  0  0  0  0
    1.5464   -1.1018    1.4223 C   0  0  0  0  0  0  0  0  0  0  0  0
    0.7444   -0.9647    2.5695 C   0  0  0  0  0  0  0  0  0  0  0  0
    1.1132   -0.0942    3.5963 C   0  0  0  0  0  0  0  0  0  0  0  0
    2.3004    0.6300    3.5049 C   0  0  0  0  0  0  0  0  0  0  0  0
    2.6536    1.4743    4.5032 F   0  0  0  0  0  0  0  0  0  0  0  0
    3.1281    0.4824    2.3859 C   0  0  0  0  0  0  0  0  0  0  0  0
    4.2988    1.1684    2.3341 F   0  0  0  0  0  0  0  0  0  0  0  0
    2.7643   -0.3867    1.3415 C   0  0  0  0  0  0  0  0  0  0  0  0
    3.6574   -0.5255    0.1762 C   0  0  0  0  0  0  0  0  0  0  0  0
    4.1581   -1.6477   -0.0997 O   0  0  0  0  0  0  0  0  0  0  0  0
    3.9671    0.5993   -0.6460 N   0  0  0  0  0  0  0  0  0  0  0  0
    4.8166    0.8738   -1.8176 C   0  0  0  0  0  0  0  0  0  0  0  0
    4.4703    2.3220   -1.9313 C   0  0  0  0  0  0  0  0  0  0  0  0
    3.6104    2.0264   -0.7481 C   0  0  0  0  0  0  0  0  0  0  0  0
   -1.1474   -0.9598   -0.2375 C   0  0  0  0  0  0  0  0  0  0  0  0
   -0.8425    0.2058    0.3938 N   0  0  0  0  0  0  0  0  0  0  0  0
   -1.6363    1.3058    0.3259 C   0  0  0  0  0  0  0  0  0  0  0  0
   -1.2990    2.5356    1.1169 C   0  0  0  0  0  0  0  0  0  0  0  0
   -0.5878    3.6199    0.3157 C   0  0  0  0  0  0  0  0  0  0  0  0
    0.1862    2.8028    1.3405 C   0  0  0  0  0  0  0  0  0  0  0  0
   -2.8151    1.2424   -0.4174 C   0  0  0  0  0  0  0  0  0  0  0  0
   -3.1293    0.0928   -1.0670 N   0  0  0  0  0  0  0  0  0  0  0  0
   -2.3379   -1.0146   -1.0009 C   0  0  0  0  0  0  0  0  0  0  0  0
   -2.6901   -2.1751   -1.7714 N   0  0  0  0  0  0  0  0  0  0  0  0
   -4.0421   -2.6338   -1.9395 C   0  0  0  0  0  0  0  0  0  0  0  0
   -4.3708   -3.4645   -3.0171 C   0  0  0  0  0  0  0  0  0  0  0  0
   -5.6426   -3.9185   -3.1641 N   0  0  0  0  0  0  0  0  0  0  0  0
   -6.6104   -3.5892   -2.2694 C   0  0  0  0  0  0  0  0  0  0  0  0
   -6.3133   -2.8006   -1.2048 N   0  0  0  0  0  0  0  0  0  0  0  0
   -5.0556   -2.3201   -1.0211 C   0  0  0  0  0  0  0  0  0  0  0  0
    1.8354   -2.5832   -0.0980 H   0  0  0  0  0  0  0  0  0  0  0  0
   -0.1794   -1.5210    2.6591 H   0  0  0  0  0  0  0  0  0  0  0  0
    0.4749    0.0194    4.4628 H   0  0  0  0  0  0  0  0  0  0  0  0
    5.8905    0.7073   -1.5781 H   0  0  0  0  0  0  0  0  0  0  0  0
    4.4798    0.2824   -2.6991 H   0  0  0  0  0  0  0  0  0  0  0  0
    5.3259    2.9948   -1.6974 H   0  0  0  0  0  0  0  0  0  0  0  0
    3.8914    2.5616   -2.8516 H   0  0  0  0  0  0  0  0  0  0  0  0
    2.5304    2.1493   -0.9683 H   0  0  0  0  0  0  0  0  0  0  0  0
    3.9278    2.5857    0.1545 H   0  0  0  0  0  0  0  0  0  0  0  0
   -1.9909    2.8952    1.9092 H   0  0  0  0  0  0  0  0  0  0  0  0
   -0.3365    3.3687   -0.7369 H   0  0  0  0  0  0  0  0  0  0  0  0
   -0.8081    4.6599    0.6413 H   0  0  0  0  0  0  0  0  0  0  0  0
    0.9010    2.0813    0.8915 H   0  0  0  0  0  0  0  0  0  0  0  0
    0.4154    3.3541    2.2743 H   0  0  0  0  0  0  0  0  0  0  0  0
   -3.4749    2.0931   -0.4808 H   0  0  0  0  0  0  0  0  0  0  0  0
   -1.9390   -2.6292   -2.3413 H   0  0  0  0  0  0  0  0  0  0  0  0
   -3.6189   -3.7475   -3.7409 H   0  0  0  0  0  0  0  0  0  0  0  0
   -7.6152   -3.9588   -2.4047 H   0  0  0  0  0  0  0  0  0  0  0  0
   -4.8483   -1.7175   -0.1460 H   0  0  0  0  0  0  0  0  0  0  0  0
  1  2  2  0
  2  3  1  0
  3  4  1  0
  4  5  2  0
  5  6  1  0
  6  7  2  0
  7  8  1  0
  7  9  1  0
  9 10  1  0
  9 11  2  0
 11 12  1  0
 12 13  2  0
 12 14  1  0
 14 15  1  0
 15 16  1  0
 16 17  1  0
  2 18  1  0
 18 19  2  0
 19 20  1  0
 20 21  1  0
 21 22  1  0
 22 23  1  0
 20 24  2  0
 24 25  1  0
 25 26  2  0
 26 27  1  0
 27 28  1  0
 28 29  2  0
 29 30  1  0
 30 31  2  0
 31 32  1  0
 32 33  2  0
 11  4  1  0
 17 14  1  0
 26 18  1  0
 33 28  1  0
 23 21  1  0
  3 34  1  0
  5 35  1  0
  6 36  1  0
 15 37  1  0
 15 38  1  0
 16 39  1  0
 16 40  1  0
 17 41  1  0
 17 42  1  0
 21 43  1  0
 22 44  1  0
 22 45  1  0
 23 46  1  0
 23 47  1  0
 24 48  1  0
 27 49  1  0
 29 50  1  0
 31 51  1  0
 33 52  1  0
M  END
$$$$

     RDKit          3D

 67 71  0  0  0  0  0  0  0  0999 V2000
   -6.4892    1.2623   -1.7601 C   0  0  0  0  0  0  0  0  0  0  0  0
   -5.8273    0.8227   -0.5268 N   0  0  0  0  0  0  0  0  0  0  0  0
   -6.3101    1.2481    0.7688 C   0  0  0  0  0  0  0  0  0  0  0  0
   -5.6779    0.9312    1.8148 O   0  0  0  0  0  0  0  0  0  0  0  0
   -7.5325    2.0605    0.9130 C   0  0  0  0  0  0  0  0  0  0  0  0
   -7.4606    3.3309    1.5058 C   0  0  0  0  0  0  0  0  0  0  0  0
   -8.6158    4.1077    1.6412 C   0  0  0  0  0  0  0  0  0  0  0  0
   -9.8493    3.6141    1.2033 C   0  0  0  0  0  0  0  0  0  0  0  0
   -9.9309    2.3378    0.6393 C   0  0  0  0  0  0  0  0  0  0  0  0
   -8.7774    1.5589    0.4997 C   0  0  0  0  0  0  0  0  0  0  0  0
   -4.6517   -0.0030   -0.6289 C   0  0  0  0  0  0  0  0  0  0  0  0
   -4.7044   -1.2218   -1.3527 C   0  0  0  0  0  0  0  0  0  0  0  0
   -3.5597   -2.0271   -1.4932 C   0  0  0  0  0  0  0  0  0  0  0  0
   -2.3763   -1.5884   -0.8936 C   0  0  0  0  0  0  0  0  0  0  0  0
   -2.3201   -0.4112   -0.2004 C   0  0  0  0  0  0  0  0  0  0  0  0
   -3.4323    0.4132   -0.0477 C   0  0  0  0  0  0  0  0  0  0  0  0
   -1.0646   -0.1874    0.2237 N   0  0  0  0  0  0  0  0  0  0  0  0
   -0.3684   -1.2629   -0.2335 C   0  0  0  0  0  0  0  0  0  0  0  0
    0.9205   -1.4173   -0.1131 N   0  0  0  0  0  0  0  0  0  0  0  0
    1.8397   -0.5767    0.5996 C   0  0  0  0  0  0  0  0  0  0  0  0
    1.4498    0.1532    1.5503 O   0  0  0  0  0  0  0  0  0  0  0  0
    3.2652   -0.6028    0.2467 C   0  0  0  0  0  0  0  0  0  0  0  0
    3.8478   -1.3824   -0.7473 C   0  0  0  0  0  0  0  0  0  0  0  0
    5.2220   -1.1559   -0.8950 C   0  0  0  0  0  0  0  0  0  0  0  0
    5.7237   -0.2008   -0.0176 C   0  0  0  0  0  0  0  0  0  0  0  0
    7.1243    0.2586    0.0123 C   0  0  0  0  0  0  0  0  0  0  0  0
    7.5562    1.1863    0.8752 C   0  0  0  0  0  0  0  0  0  0  0  0
    8.9446    1.6813    0.8800 C   0  0  0  0  0  0  0  0  0  0  0  0
    9.3113    2.6193    1.7941 N   0  0  0  0  0  0  0  0  0  0  0  0
   10.5750    3.1166    1.8230 C   0  0  0  0  0  0  0  0  0  0  0  0
   11.5236    2.6669    0.8990 C   0  0  0  0  0  0  0  0  0  0  0  0
   12.8566    3.1854    0.9039 N   0  0  0  0  0  0  0  0  0  0  0  0
   11.1318    1.7009   -0.0322 C   0  0  0  0  0  0  0  0  0  0  0  0
    9.8576    1.2297   -0.0249 N   0  0  0  0  0  0  0  0  0  0  0  0
    4.4552    0.3628    0.9417 S   0  0  0  0  0  0  0  0  0  0  0  0
   -1.1463   -2.1449   -0.9176 N   0  0  0  0  0  0  0  0  0  0  0  0
   -0.7131   -3.3835   -1.5772 C   0  0  0  0  0  0  0  0  0  0  0  0
   -0.3492   -4.4691   -0.5512 C   0  0  0  0  0  0  0  0  0  0  0  0
   -1.5231   -5.0070    0.2247 C   0  0  0  0  0  0  0  0  0  0  0  0
   -1.3078   -5.9994    1.2294 N   0  0  0  0  0  0  0  0  0  0  0  0
   -2.6955   -4.6068   -0.0049 O   0  0  0  0  0  0  0  0  0  0  0  0
   -5.8843    1.0004   -2.6564 H   0  0  0  0  0  0  0  0  0  0  0  0
   -7.4774    0.7701   -1.8579 H   0  0  0  0  0  0  0  0  0  0  0  0
   -6.6185    2.3644   -1.7488 H   0  0  0  0  0  0  0  0  0  0  0  0
   -6.5101    3.7246    1.8480 H   0  0  0  0  0  0  0  0  0  0  0  0
   -8.5553    5.0929    2.0850 H   0  0  0  0  0  0  0  0  0  0  0  0
  -10.7425    4.2160    1.3095 H   0  0  0  0  0  0  0  0  0  0  0  0
  -10.8887    1.9495    0.3163 H   0  0  0  0  0  0  0  0  0  0  0  0
   -8.8575    0.5622    0.0853 H   0  0  0  0  0  0  0  0  0  0  0  0
   -5.6335   -1.5408   -1.8083 H   0  0  0  0  0  0  0  0  0  0  0  0
   -3.6099   -2.9486   -2.0557 H   0  0  0  0  0  0  0  0  0  0  0  0
   -3.3517    1.3544    0.4816 H   0  0  0  0  0  0  0  0  0  0  0  0
   -0.7269    0.6623    0.7257 H   0  0  0  0  0  0  0  0  0  0  0  0
    3.2971   -2.0870   -1.3569 H   0  0  0  0  0  0  0  0  0  0  0  0
    5.8291   -1.6681   -1.6307 H   0  0  0  0  0  0  0  0  0  0  0  0
    7.8108   -0.1739   -0.7055 H   0  0  0  0  0  0  0  0  0  0  0  0
    6.8715    1.6110    1.5992 H   0  0  0  0  0  0  0  0  0  0  0  0
   10.8374    3.8628    2.5625 H   0  0  0  0  0  0  0  0  0  0  0  0
   13.5575    2.8690    0.1951 H   0  0  0  0  0  0  0  0  0  0  0  0
   13.1395    3.9192    1.5903 H   0  0  0  0  0  0  0  0  0  0  0  0
   11.8355    1.3265   -0.7643 H   0  0  0  0  0  0  0  0  0  0  0  0
   -1.4916   -3.7632   -2.2713 H   0  0  0  0  0  0  0  0  0  0  0  0
    0.1838   -3.1652   -2.1959 H   0  0  0  0  0  0  0  0  0  0  0  0
    0.4019   -4.0698    0.1632 H   0  0  0  0  0  0  0  0  0  0  0  0
    0.1231   -5.3178   -1.0915 H   0  0  0  0  0  0  0  0  0  0  0  0
   -0.3451   -6.3489    1.4332 H   0  0  0  0  0  0  0  0  0  0  0  0
   -2.1153   -6.4021    1.7547 H   0  0  0  0  0  0  0  0  0  0  0  0
  1  2  1  0
  2  3  1  0
  3  4  2  0
  3  5  1  0
  5  6  2  0
  6  7  1  0
  7  8  2  0
  8  9  1  0
  9 10  2  0
  2 11  1  0
 11 12  2  0
 12 13  1  0
 13 14  2  0
 14 15  1  0
 15 16  2  0
 15 17  1  0
 17 18  1  0
 18 19  2  0
 19 20  1  0
 20 21  2  0
 20 22  1  0
 22 23  2  0
 23 24  1  0
 24 25  2  0
 25 26  1  0
 26 27  2  0
 27 28  1  0
 28 29  2  0
 29 30  1  0
 30 31  2  0
 31 32  1  0
 31 33  1  0
 33 34  2  0
 25 35  1  0
 18 36  1  0
 36 37  1  0
 37 38  1  0
 38 39  1  0
 39 40  1  0
 39 41  2  0
 10  5  1  0
 16 11  1  0
 35 22  1  0
 36 14  1  0
 34 28  1  0
  1 42  1  0
  1 43  1  0
  1 44  1  0
  6 45  1  0
  7 46  1  0
  8 47  1  0
  9 48  1  0
 10 49  1  0
 12 50  1  0
 13 51  1  0
 16 52  1  0
 17 53  1  0
 23 54  1  0
 24 55  1  0
 26 56  1  0
 27 57  1  0
 30 58  1  0
 32 59  1  0
 32 60  1  0
 33 61  1  0
 37 62  1  0
 37 63  1  0
 38 64  1  0
 38 65  1  0
 40 66  1  0
 40 67  1  0
M  END
$$$$
